<?xml version="1.0" encoding="UTF-8"?>

<!-- generated on 2021-06-19 16:06:27 by Eclipse SUMO netedit Version 1.9.2
<configuration xmlns:xsi="http://www.w3.org/2001/XMLSchema-instance" xsi:noNamespaceSchemaLocation="http://sumo.dlr.de/xsd/netconvertConfiguration.xsd">

    <input>
        <sumo-net-file value="/home/afonso/Desktop/Afonso/FEUP/4_Ano/2ndSemestre/MSSI/Project/src/SUMO/new.net.xml"/>
    </input>

    <output>
        <output-file value="/home/afonso/Desktop/Afonso/FEUP/4_Ano/2ndSemestre/MSSI/Project/src/SUMO/new_acident.net.xml"/>
    </output>

    <processing>
        <geometry.min-radius.fix.railways value="false"/>
        <geometry.max-grade.fix value="false"/>
        <offset.disable-normalization value="true"/>
        <lefthand value="false"/>
    </processing>

    <junctions>
        <no-turnarounds value="true"/>
        <junctions.corner-detail value="5"/>
        <junctions.limit-turn-speed value="5.5"/>
        <rectangular-lane-cut value="false"/>
    </junctions>

    <pedestrian>
        <walkingareas value="false"/>
    </pedestrian>

    <report>
        <aggregate-warnings value="5"/>
    </report>

</configuration>
-->

<net version="1.9" junctionCornerDetail="5" limitTurnSpeed="5.50" xmlns:xsi="http://www.w3.org/2001/XMLSchema-instance" xsi:noNamespaceSchemaLocation="http://sumo.dlr.de/xsd/net_file.xsd">

    <location netOffset="0.00,0.00" convBoundary="-200.00,-100.00,500.00,200.00" origBoundary="-10000000000.00,-10000000000.00,10000000000.00,10000000000.00" projParameter="!"/>

    <edge id=":gneJ5_0" function="internal">
        <lane id=":gneJ5_0_0" index="0" speed="12.00" length="8.00" shape="296.00,98.40 304.00,98.40"/>
    </edge>
    <edge id=":gneJ7_0" function="internal">
        <lane id=":gneJ7_0_0" index="0" speed="4.38" length="1.07" shape="-0.27,198.08 0.02,198.21 0.23,198.27 0.45,198.27 0.76,198.22"/>
    </edge>
    <edge id=":gneJ8_0" function="internal">
        <lane id=":gneJ8_0_0" index="0" speed="4.02" length="1.69" shape="99.11,-101.33 99.50,-101.53 99.90,-101.61 100.30,-101.58 100.72,-101.43"/>
    </edge>

    <edge id="gneE10" from="gneJ4" to="gneJ8" priority="-1">
        <lane id="gneE10_0" index="0" speed="15.00" length="347.52" shape="-190.04,91.44 99.11,-101.33"/>
    </edge>
    <edge id="gneE11" from="gneJ7" to="gneJ6" priority="-1">
        <lane id="gneE11_0" index="0" speed="13.89" length="491.30" shape="0.76,198.22 482.53,101.86"/>
    </edge>
    <edge id="gneE12" from="gneJ8" to="gneJ6" priority="-1">
        <lane id="gneE12_0" index="0" speed="15.00" length="438.56" shape="100.72,-101.43 492.97,94.70"/>
    </edge>
    <edge id="gneE5" from="gneJ4" to="gneJ5" priority="-1">
        <lane id="gneE5_0" index="0" speed="12.00" length="484.90" shape="-188.90,95.20 296.00,95.20"/>
        <lane id="gneE5_1" index="1" speed="12.00" length="484.90" shape="-188.90,98.40 296.00,98.40"/>
    </edge>
    <edge id="gneE7" from="gneJ5" to="gneJ6" priority="-1">
        <lane id="gneE7_0" index="0" speed="12.00" length="178.18" shape="304.00,98.40 482.18,98.40"/>
    </edge>
    <edge id="gneE9" from="gneJ4" to="gneJ7" priority="-1">
        <lane id="gneE9_0" index="0" speed="13.89" length="214.61" shape="-192.22,102.10 -0.27,198.08"/>
    </edge>

    <junction id="gneJ4" type="dead_end" x="-200.00" y="100.00" incLanes="" intLanes="" shape="-192.93,103.53 -191.50,100.67 -191.81,100.30 -191.52,100.17 -190.94,100.07 -190.07,100.02 -188.90,100.00 -188.90,93.60 -189.15,92.77 -190.93,90.11 -194.42,92.77 -196.65,95.26 -197.61,97.59 -197.32,99.74 -195.76,101.72"/>
    <junction id="gneJ5" type="priority" x="300.00" y="100.00" incLanes="gneE5_0 gneE5_1" intLanes=":gneJ5_0_0" shape="304.00,100.00 304.00,96.80 300.97,95.97 299.03,94.43 297.79,93.84 296.00,93.60 296.00,100.00">
        <request index="0" response="0" foes="0" cont="0"/>
    </junction>
    <junction id="gneJ6" type="dead_end" x="500.00" y="100.00" incLanes="gneE12_0 gneE7_0 gneE11_0" intLanes="" shape="493.69,93.27 492.26,96.13 491.74,96.50 490.41,96.63 488.38,96.73 485.63,96.78 482.18,96.80 482.18,100.00 482.21,100.29 482.84,103.43 489.33,101.91 493.94,100.32 496.69,98.66 497.56,96.93 496.56,95.14"/>
    <junction id="gneJ7" type="priority" x="0.00" y="200.00" incLanes="gneE9_0" intLanes=":gneJ7_0_0" shape="1.08,199.78 0.45,196.65 -0.98,199.51 -0.26,199.83 0.01,199.90 0.30,199.91 0.64,199.87">
        <request index="0" response="0" foes="0" cont="0"/>
    </junction>
    <junction id="gneJ8" type="priority" x="100.00" y="-100.00" incLanes="gneE10_0" intLanes=":gneJ8_0_0" shape="100.00,-100.00 101.43,-102.86 100.34,-103.21 99.80,-103.23 99.27,-103.14 98.74,-102.95 98.22,-102.66">
        <request index="0" response="0" foes="0" cont="0"/>
    </junction>

    <connection from="gneE10" to="gneE12" fromLane="0" toLane="0" via=":gneJ8_0_0" dir="l" state="M"/>
    <connection from="gneE5" to="gneE7" fromLane="1" toLane="0" via=":gneJ5_0_0" dir="s" state="M"/>
    <connection from="gneE9" to="gneE11" fromLane="0" toLane="0" via=":gneJ7_0_0" dir="s" state="M"/>

    <connection from=":gneJ5_0" to="gneE7" fromLane="0" toLane="0" dir="s" state="M"/>
    <connection from=":gneJ7_0" to="gneE11" fromLane="0" toLane="0" dir="s" state="M"/>
    <connection from=":gneJ8_0" to="gneE12" fromLane="0" toLane="0" dir="l" state="M"/>

</net>
