<!-- vehicle flow definition -->
<!-- <routes> -->
<!--   <vType id="car" accel="0.8" decel="4.5" sigma="0" length="5" minGap="2" maxSpeed="70"/>
   
   <route id="from0" edges="1i 2o"/>
   <flow id="from0" type="car" route="from0" begin="1" end="502" vehsPerHour ="100" />
   
   <route id="from1" edges="1i 3o"/>
   <flow id="from1" type="car" route="from1" begin="2" end="503" vehsPerHour ="100" />
   -->

<!-- <vehicle id="1.0" depart="0.00" departLane="free" color="1,1,0">
        <route edges="gneE1 gneE2"/>
</vehicle>

<vehicle id="2.0" depart="0.00" departLane="free" color="1,1,1">
        <route edges="gneE1 gneE2"/>
</vehicle>


</routes>
 -->

<!-- individual car definition -->

<routes>
   <vType id="type1" accel="0.8" decel="4.5" sigma="0.5" length="5" maxSpeed="12"/>
   <vType id="type2" accel="5" decel="4.5" sigma="0.5" length="5" maxSpeed="20"/>
   <vType id="type3" accel="0.8" decel="4.5" sigma="0.5" length="8" maxSpeed="8"/>

   <route id="route0" color="1,1,0" edges="gneE1 gneE2"/>
   <route id="route1" color="1,1,0" edges="gneE0"/>
   <route id="route2" color="1,1,0" edges="gneE3 gneE4"/>

  <!-- <vehicle id="0" type="type1" route="route0" depart="0" color="1,0,0"/>
   <vehicle id="1" type="type1" route="route0" depart="2" color="0,1,0"/>
   <vehicle id="2" type="type1" route="route1" depart="4" color="1,0,0"/>
   <vehicle id="5" type="type1" route="route1" depart="4" color="1,1,0"/>
   <vehicle id="6" type="type1" route="route1" depart="4" color="1,0,1"/>
   <vehicle id="3" type="type1" route="route1" depart="6" color="0,1,0"/>-->
</routes>
